<?xml version="1.0" encoding="UTF-8"?>
<nodes>
    <node id="center" x="200.0" y="200.0" type="priority"/>
    <node id="north"  x="200.0" y="400.0" type="dead_end"/>
    <node id="south"  x="200.0" y="0.0"   type="dead_end"/>
    <node id="east"   x="400.0" y="200.0" type="dead_end"/>
    <node id="west"   x="0.0"   y="200.0" type="dead_end"/>
</nodes>