<?xml version="1.0" encoding="UTF-8"?>

<!-- generated on 2026-03-20T16:22:31.202724+01:00 by Eclipse SUMO netconvert 1.26.0
<netconvertConfiguration xmlns:xsi="http://www.w3.org/2001/XMLSchema-instance" xsi:noNamespaceSchemaLocation="http://sumo.dlr.de/xsd/netconvertConfiguration.xsd">

    <input>
        <node-files value="simple.nod.xml"/>
        <edge-files value="simple.edg.xml"/>
    </input>

    <output>
        <output-file value="simple.net.xml"/>
    </output>

    <report>
        <no-warnings value="true"/>
    </report>

</netconvertConfiguration>
-->

<net version="1.20" junctionCornerDetail="5" limitTurnSpeed="5.50" xmlns:xsi="http://www.w3.org/2001/XMLSchema-instance" xsi:noNamespaceSchemaLocation="http://sumo.dlr.de/xsd/net_file.xsd">

    <location netOffset="0.00,0.00" convBoundary="0.00,0.00,400.00,400.00" origBoundary="0.00,0.00,400.00,400.00" projParameter="!"/>

    <edge id=":center_0" function="internal">
        <lane id=":center_0_0" index="0" speed="6.51" length="9.03" shape="198.40,207.20 198.05,204.75 197.00,203.00 195.25,201.95 192.80,201.60"/>
    </edge>
    <edge id=":center_1" function="internal">
        <lane id=":center_1_0" index="0" speed="13.90" length="14.40" shape="198.40,207.20 198.40,192.80"/>
    </edge>
    <edge id=":center_2" function="internal">
        <lane id=":center_2_0" index="0" speed="8.00" length="4.07" shape="198.40,207.20 198.95,203.35 199.04,203.20"/>
    </edge>
    <edge id=":center_3" function="internal">
        <lane id=":center_3_0" index="0" speed="3.65" length="1.44" shape="198.40,207.20 199.20,206.00"/>
    </edge>
    <edge id=":center_16" function="internal">
        <lane id=":center_16_0" index="0" speed="8.00" length="10.13" shape="199.04,203.20 200.60,200.60 203.35,198.95 207.20,198.40"/>
    </edge>
    <edge id=":center_17" function="internal">
        <lane id=":center_17_0" index="0" speed="3.65" length="3.23" shape="199.20,206.00 200.00,205.60 200.80,206.00 201.60,207.20"/>
    </edge>
    <edge id=":center_4" function="internal">
        <lane id=":center_4_0" index="0" speed="6.51" length="9.03" shape="207.20,201.60 204.75,201.95 203.00,203.00 201.95,204.75 201.60,207.20"/>
    </edge>
    <edge id=":center_5" function="internal">
        <lane id=":center_5_0" index="0" speed="13.90" length="14.40" shape="207.20,201.60 192.80,201.60"/>
    </edge>
    <edge id=":center_6" function="internal">
        <lane id=":center_6_0" index="0" speed="8.00" length="14.19" shape="207.20,201.60 203.35,201.05 200.60,199.40 198.95,196.65 198.40,192.80"/>
    </edge>
    <edge id=":center_7" function="internal">
        <lane id=":center_7_0" index="0" speed="3.65" length="4.67" shape="207.20,201.60 206.00,200.80 205.60,200.00 206.00,199.20 207.20,198.40"/>
    </edge>
    <edge id=":center_8" function="internal">
        <lane id=":center_8_0" index="0" speed="6.51" length="9.03" shape="201.60,192.80 201.95,195.25 203.00,197.00 204.75,198.05 207.20,198.40"/>
    </edge>
    <edge id=":center_9" function="internal">
        <lane id=":center_9_0" index="0" speed="13.90" length="14.40" shape="201.60,192.80 201.60,207.20"/>
    </edge>
    <edge id=":center_10" function="internal">
        <lane id=":center_10_0" index="0" speed="8.00" length="4.07" shape="201.60,192.80 201.05,196.65 200.96,196.80"/>
    </edge>
    <edge id=":center_11" function="internal">
        <lane id=":center_11_0" index="0" speed="3.65" length="1.44" shape="201.60,192.80 200.80,194.00"/>
    </edge>
    <edge id=":center_18" function="internal">
        <lane id=":center_18_0" index="0" speed="8.00" length="10.13" shape="200.96,196.80 199.40,199.40 196.65,201.05 192.80,201.60"/>
    </edge>
    <edge id=":center_19" function="internal">
        <lane id=":center_19_0" index="0" speed="3.65" length="3.23" shape="200.80,194.00 200.00,194.40 199.20,194.00 198.40,192.80"/>
    </edge>
    <edge id=":center_12" function="internal">
        <lane id=":center_12_0" index="0" speed="6.51" length="9.03" shape="192.80,198.40 195.25,198.05 197.00,197.00 198.05,195.25 198.40,192.80"/>
    </edge>
    <edge id=":center_13" function="internal">
        <lane id=":center_13_0" index="0" speed="13.90" length="14.40" shape="192.80,198.40 207.20,198.40"/>
    </edge>
    <edge id=":center_14" function="internal">
        <lane id=":center_14_0" index="0" speed="8.00" length="14.19" shape="192.80,198.40 196.65,198.95 199.40,200.60 201.05,203.35 201.60,207.20"/>
    </edge>
    <edge id=":center_15" function="internal">
        <lane id=":center_15_0" index="0" speed="3.65" length="4.67" shape="192.80,198.40 194.00,199.20 194.40,200.00 194.00,200.80 192.80,201.60"/>
    </edge>
    <edge id=":east_0" function="internal">
        <lane id=":east_0_0" index="0" speed="3.65" length="4.67" shape="400.00,198.40 401.20,199.20 401.60,200.00 401.20,200.80 400.00,201.60"/>
    </edge>
    <edge id=":north_0" function="internal">
        <lane id=":north_0_0" index="0" speed="3.65" length="4.67" shape="201.60,400.00 200.80,401.20 200.00,401.60 199.20,401.20 198.40,400.00"/>
    </edge>
    <edge id=":south_0" function="internal">
        <lane id=":south_0_0" index="0" speed="3.65" length="4.67" shape="198.40,0.00 199.20,-1.20 200.00,-1.60 200.80,-1.20 201.60,0.00"/>
    </edge>
    <edge id=":west_0" function="internal">
        <lane id=":west_0_0" index="0" speed="3.65" length="4.67" shape="0.00,201.60 -1.20,200.80 -1.60,200.00 -1.20,199.20 0.00,198.40"/>
    </edge>

    <edge id="center_to_east" from="center" to="east" priority="-1">
        <lane id="center_to_east_0" index="0" speed="13.90" length="192.80" shape="207.20,198.40 400.00,198.40"/>
    </edge>
    <edge id="center_to_north" from="center" to="north" priority="-1">
        <lane id="center_to_north_0" index="0" speed="13.90" length="192.80" shape="201.60,207.20 201.60,400.00"/>
    </edge>
    <edge id="center_to_south" from="center" to="south" priority="-1">
        <lane id="center_to_south_0" index="0" speed="13.90" length="192.80" shape="198.40,192.80 198.40,0.00"/>
    </edge>
    <edge id="center_to_west" from="center" to="west" priority="-1">
        <lane id="center_to_west_0" index="0" speed="13.90" length="192.80" shape="192.80,201.60 0.00,201.60"/>
    </edge>
    <edge id="east_to_center" from="east" to="center" priority="-1">
        <lane id="east_to_center_0" index="0" speed="13.90" length="192.80" shape="400.00,201.60 207.20,201.60"/>
    </edge>
    <edge id="north_to_center" from="north" to="center" priority="-1">
        <lane id="north_to_center_0" index="0" speed="13.90" length="192.80" shape="198.40,400.00 198.40,207.20"/>
    </edge>
    <edge id="south_to_center" from="south" to="center" priority="-1">
        <lane id="south_to_center_0" index="0" speed="13.90" length="192.80" shape="201.60,0.00 201.60,192.80"/>
    </edge>
    <edge id="west_to_center" from="west" to="center" priority="-1">
        <lane id="west_to_center_0" index="0" speed="13.90" length="192.80" shape="0.00,198.40 192.80,198.40"/>
    </edge>

    <junction id="center" type="priority" x="200.00" y="200.00" incLanes="north_to_center_0 east_to_center_0 south_to_center_0 west_to_center_0" intLanes=":center_0_0 :center_1_0 :center_16_0 :center_17_0 :center_4_0 :center_5_0 :center_6_0 :center_7_0 :center_8_0 :center_9_0 :center_18_0 :center_19_0 :center_12_0 :center_13_0 :center_14_0 :center_15_0" shape="196.80,207.20 203.20,207.20 203.64,204.98 204.20,204.20 204.98,203.64 205.98,203.31 207.20,203.20 207.20,196.80 204.98,196.36 204.20,195.80 203.64,195.02 203.31,194.02 203.20,192.80 196.80,192.80 196.36,195.02 195.80,195.80 195.02,196.36 194.02,196.69 192.80,196.80 192.80,203.20 195.02,203.64 195.80,204.20 196.36,204.98 196.69,205.98">
        <request index="0"  response="0000000000000000" foes="1000010000100000" cont="0"/>
        <request index="1"  response="0000000000000000" foes="0111110001100000" cont="0"/>
        <request index="2"  response="0000011100000000" foes="0110011111100000" cont="1"/>
        <request index="3"  response="0100001000010000" foes="0100001000010000" cont="1"/>
        <request index="4"  response="0000001000000000" foes="0100001000001000" cont="0"/>
        <request index="5"  response="0000011000000111" foes="1100011000000111" cont="0"/>
        <request index="6"  response="0111011000000110" foes="0111111000000110" cont="0"/>
        <request index="7"  response="0010000100000100" foes="0010000100000100" cont="0"/>
        <request index="8"  response="0000000000000000" foes="0010000010000100" cont="0"/>
        <request index="9"  response="0000000000000000" foes="0110000001111100" cont="0"/>
        <request index="10" response="0000000000000011" foes="1110000001100111" cont="1"/>
        <request index="11" response="0001000001000010" foes="0001000001000010" cont="1"/>
        <request index="12" response="0000000000000010" foes="0000100001000010" cont="0"/>
        <request index="13" response="0000011100000110" foes="0000011111000110" cont="0"/>
        <request index="14" response="0000011000110110" foes="0000011001111110" cont="0"/>
        <request index="15" response="0000010000100001" foes="0000010000100001" cont="0"/>
    </junction>
    <junction id="east" type="priority" x="400.00" y="200.00" incLanes="center_to_east_0" intLanes=":east_0_0" shape="400.00,200.00 400.00,196.80 400.00,200.00">
        <request index="0" response="0" foes="0" cont="0"/>
    </junction>
    <junction id="north" type="priority" x="200.00" y="400.00" incLanes="center_to_north_0" intLanes=":north_0_0" shape="200.00,400.00 203.20,400.00 200.00,400.00">
        <request index="0" response="0" foes="0" cont="0"/>
    </junction>
    <junction id="south" type="priority" x="200.00" y="0.00" incLanes="center_to_south_0" intLanes=":south_0_0" shape="200.00,0.00 196.80,0.00 200.00,0.00">
        <request index="0" response="0" foes="0" cont="0"/>
    </junction>
    <junction id="west" type="priority" x="0.00" y="200.00" incLanes="center_to_west_0" intLanes=":west_0_0" shape="0.00,200.00 0.00,203.20 0.00,200.00">
        <request index="0" response="0" foes="0" cont="0"/>
    </junction>

    <junction id=":center_16_0" type="internal" x="199.04" y="203.20" incLanes=":center_2_0 south_to_center_0" intLanes=":center_5_0 :center_6_0 :center_7_0 :center_8_0 :center_9_0 :center_13_0 :center_14_0"/>
    <junction id=":center_17_0" type="internal" x="199.20" y="206.00" incLanes=":center_3_0 east_to_center_0 south_to_center_0 west_to_center_0" intLanes=":center_4_0 :center_9_0 :center_14_0"/>
    <junction id=":center_18_0" type="internal" x="200.96" y="196.80" incLanes=":center_10_0 north_to_center_0" intLanes=":center_0_0 :center_1_0 :center_5_0 :center_6_0 :center_13_0 :center_14_0 :center_15_0"/>
    <junction id=":center_19_0" type="internal" x="200.80" y="194.00" incLanes=":center_11_0 east_to_center_0 north_to_center_0 west_to_center_0" intLanes=":center_1_0 :center_6_0 :center_12_0"/>

    <connection from="center_to_east" to="east_to_center" fromLane="0" toLane="0" via=":east_0_0" dir="t" state="M"/>
    <connection from="center_to_north" to="north_to_center" fromLane="0" toLane="0" via=":north_0_0" dir="t" state="M"/>
    <connection from="center_to_south" to="south_to_center" fromLane="0" toLane="0" via=":south_0_0" dir="t" state="M"/>
    <connection from="center_to_west" to="west_to_center" fromLane="0" toLane="0" via=":west_0_0" dir="t" state="M"/>
    <connection from="east_to_center" to="center_to_north" fromLane="0" toLane="0" via=":center_4_0" dir="r" state="m"/>
    <connection from="east_to_center" to="center_to_west" fromLane="0" toLane="0" via=":center_5_0" dir="s" state="m"/>
    <connection from="east_to_center" to="center_to_south" fromLane="0" toLane="0" via=":center_6_0" dir="l" state="m"/>
    <connection from="east_to_center" to="center_to_east" fromLane="0" toLane="0" via=":center_7_0" dir="t" state="m"/>
    <connection from="north_to_center" to="center_to_west" fromLane="0" toLane="0" via=":center_0_0" dir="r" state="M"/>
    <connection from="north_to_center" to="center_to_south" fromLane="0" toLane="0" via=":center_1_0" dir="s" state="M"/>
    <connection from="north_to_center" to="center_to_east" fromLane="0" toLane="0" via=":center_2_0" dir="l" state="m"/>
    <connection from="north_to_center" to="center_to_north" fromLane="0" toLane="0" via=":center_3_0" dir="t" state="m"/>
    <connection from="south_to_center" to="center_to_east" fromLane="0" toLane="0" via=":center_8_0" dir="r" state="M"/>
    <connection from="south_to_center" to="center_to_north" fromLane="0" toLane="0" via=":center_9_0" dir="s" state="M"/>
    <connection from="south_to_center" to="center_to_west" fromLane="0" toLane="0" via=":center_10_0" dir="l" state="m"/>
    <connection from="south_to_center" to="center_to_south" fromLane="0" toLane="0" via=":center_11_0" dir="t" state="m"/>
    <connection from="west_to_center" to="center_to_south" fromLane="0" toLane="0" via=":center_12_0" dir="r" state="m"/>
    <connection from="west_to_center" to="center_to_east" fromLane="0" toLane="0" via=":center_13_0" dir="s" state="m"/>
    <connection from="west_to_center" to="center_to_north" fromLane="0" toLane="0" via=":center_14_0" dir="l" state="m"/>
    <connection from="west_to_center" to="center_to_west" fromLane="0" toLane="0" via=":center_15_0" dir="t" state="m"/>

    <connection from=":center_0" to="center_to_west" fromLane="0" toLane="0" dir="r" state="M"/>
    <connection from=":center_1" to="center_to_south" fromLane="0" toLane="0" dir="s" state="M"/>
    <connection from=":center_2" to="center_to_east" fromLane="0" toLane="0" via=":center_16_0" dir="l" state="m"/>
    <connection from=":center_16" to="center_to_east" fromLane="0" toLane="0" dir="l" state="M"/>
    <connection from=":center_3" to="center_to_north" fromLane="0" toLane="0" via=":center_17_0" dir="t" state="m"/>
    <connection from=":center_17" to="center_to_north" fromLane="0" toLane="0" dir="t" state="M"/>
    <connection from=":center_4" to="center_to_north" fromLane="0" toLane="0" dir="r" state="M"/>
    <connection from=":center_5" to="center_to_west" fromLane="0" toLane="0" dir="s" state="M"/>
    <connection from=":center_6" to="center_to_south" fromLane="0" toLane="0" dir="l" state="M"/>
    <connection from=":center_7" to="center_to_east" fromLane="0" toLane="0" dir="t" state="M"/>
    <connection from=":center_8" to="center_to_east" fromLane="0" toLane="0" dir="r" state="M"/>
    <connection from=":center_9" to="center_to_north" fromLane="0" toLane="0" dir="s" state="M"/>
    <connection from=":center_10" to="center_to_west" fromLane="0" toLane="0" via=":center_18_0" dir="l" state="m"/>
    <connection from=":center_18" to="center_to_west" fromLane="0" toLane="0" dir="l" state="M"/>
    <connection from=":center_11" to="center_to_south" fromLane="0" toLane="0" via=":center_19_0" dir="t" state="m"/>
    <connection from=":center_19" to="center_to_south" fromLane="0" toLane="0" dir="t" state="M"/>
    <connection from=":center_12" to="center_to_south" fromLane="0" toLane="0" dir="r" state="M"/>
    <connection from=":center_13" to="center_to_east" fromLane="0" toLane="0" dir="s" state="M"/>
    <connection from=":center_14" to="center_to_north" fromLane="0" toLane="0" dir="l" state="M"/>
    <connection from=":center_15" to="center_to_west" fromLane="0" toLane="0" dir="t" state="M"/>
    <connection from=":east_0" to="east_to_center" fromLane="0" toLane="0" dir="t" state="M"/>
    <connection from=":north_0" to="north_to_center" fromLane="0" toLane="0" dir="t" state="M"/>
    <connection from=":south_0" to="south_to_center" fromLane="0" toLane="0" dir="t" state="M"/>
    <connection from=":west_0" to="west_to_center" fromLane="0" toLane="0" dir="t" state="M"/>

</net>
